LTspice 24.1.5 for Windows
Circuit: C:\Users\hp\Downloads\PROJECTS 2\ELECTRONIC CIRCUITS\EXP1\EXP1.net
Start Time: Sat Jun 13 09:54:35 2026
solver = Normal
Maximum thread count: 12
tnom = 27
temp = 27
method = trap
Direct Newton iteration for .op point succeeded.
Total elapsed time: 0.088 seconds.

Files loaded:
C:\Users\hp\Downloads\PROJECTS 2\ELECTRONIC CIRCUITS\EXP1\EXP1.net
C:\Users\hp\AppData\Local\LTspice\lib\cmp\standard.dio

